data/rahmat_Feeder_2_v0.1/LoadsCopyUnq.txt
New Load.LOAD12_1 Phases=1 Bus1=12_115.1 kV=0.23 kW=1 PF=0.95
New Load.LOAD12_2 Phases=1 Bus1=12_181.1 kV=0.23 kW=1 PF=0.95
New Load.LOAD12_3 Phases=1 Bus1=12_196.3 kV=0.23 kW=1 PF=0.95
New Load.LOAD12_4 Phases=1 Bus1=12_219.1 kV=0.23 kW=1 PF=0.95
New Load.LOAD12_5 Phases=1 Bus1=12_222.2 kV=0.23 kW=1 PF=0.95
New Load.LOAD12_6 Phases=1 Bus1=12_223.2 kV=0.23 kW=1 PF=0.95
New Load.LOAD12_7 Phases=1 Bus1=12_232.3 kV=0.23 kW=1 PF=0.95
New Load.LOAD12_8 Phases=1 Bus1=12_240.1 kV=0.23 kW=1 PF=0.95
New Load.LOAD12_9 Phases=1 Bus1=12_271.2 kV=0.23 kW=1 PF=0.95
New Load.LOAD12_10 Phases=1 Bus1=12_278.1 kV=0.23 kW=1 PF=0.95
New Load.LOAD12_11 Phases=1 Bus1=12_279.1 kV=0.23 kW=1 PF=0.95
New Load.LOAD12_12 Phases=1 Bus1=12_284.1 kV=0.23 kW=1 PF=0.95
New Load.LOAD12_13 Phases=1 Bus1=12_317.2 kV=0.23 kW=1 PF=0.95
New Load.LOAD12_14 Phases=1 Bus1=12_326.1 kV=0.23 kW=1 PF=0.95
New Load.LOAD12_15 Phases=1 Bus1=12_327.1 kV=0.23 kW=1 PF=0.95
New Load.LOAD12_16 Phases=1 Bus1=12_332.3 kV=0.23 kW=1 PF=0.95
New Load.LOAD12_17 Phases=1 Bus1=12_345.3 kV=0.23 kW=1 PF=0.95
New Load.LOAD12_18 Phases=1 Bus1=12_356.2 kV=0.23 kW=1 PF=0.95
New Load.LOAD12_19 Phases=1 Bus1=12_361.3 kV=0.23 kW=1 PF=0.95
New Load.LOAD12_20 Phases=1 Bus1=12_362.3 kV=0.23 kW=1 PF=0.95
New Load.LOAD12_21 Phases=1 Bus1=12_364.1 kV=0.23 kW=1 PF=0.95
New Load.LOAD12_22 Phases=1 Bus1=12_399.2 kV=0.23 kW=1 PF=0.95
New Load.LOAD12_23 Phases=1 Bus1=12_415.3 kV=0.23 kW=1 PF=0.95
New Load.LOAD12_24 Phases=1 Bus1=12_440.2 kV=0.23 kW=1 PF=0.95
New Load.LOAD12_25 Phases=1 Bus1=12_443.3 kV=0.23 kW=1 PF=0.95
New Load.LOAD12_26 Phases=1 Bus1=12_455.2 kV=0.23 kW=1 PF=0.95
New Load.LOAD12_27 Phases=1 Bus1=12_456.2 kV=0.23 kW=1 PF=0.95
New Load.LOAD12_28 Phases=1 Bus1=12_461.2 kV=0.23 kW=1 PF=0.95
New Load.LOAD12_29 Phases=1 Bus1=12_469.1 kV=0.23 kW=1 PF=0.95
New Load.LOAD12_30 Phases=1 Bus1=12_477.2 kV=0.23 kW=1 PF=0.95
New Load.LOAD12_31 Phases=1 Bus1=12_479.3 kV=0.23 kW=1 PF=0.95
